         200
  Built with Packmol                                             
  Ar          25.222618       36.884308       35.169940
  Ar          15.369123       27.704813       36.243401
  Ar           7.581613        7.915536       12.715512
  Ar           0.886739        3.314322       39.689262
  Ar          39.084015        6.382500       32.248702
  Ar          19.999585        3.918188       37.893343
  Ar          36.908395       35.585992       16.899393
  Ar          16.201212       38.102283       38.785402
  Ar           4.095057       19.099989       19.603726
  Ar          18.948255        4.036478       19.757993
  Ar          21.321689       29.054930        0.593026
  Ar          20.470433       16.182805       26.187295
  Ar          37.046182       15.460003        0.461976
  Ar           3.187349       23.958477        2.763207
  Ar          31.992876       25.328591       24.908704
  Ar          32.145907        0.109305       11.919964
  Ar           2.448596       26.941612       30.641489
  Ar          17.480791       27.619662       19.006403
  Ar          22.734178       15.254752       28.580320
  Ar          26.173467        8.421458       21.888544
  Ar          11.336977       10.902498        3.486945
  Ar           2.200108       27.987739        7.282473
  Ar           0.000001       32.495581        3.190935
  Ar          28.142741       36.001396       14.003435
  Ar          24.253356        1.493225       17.110999
  Ar           2.316641       31.396596        0.000004
  Ar          20.364570       25.275124       39.508482
  Ar          22.380971       39.322648       30.271677
  Ar           3.086212        7.915029        7.348360
  Ar           2.673200       30.962559       10.992479
  Ar          11.574407       18.589234       27.609962
  Ar           6.941298        5.931754        8.715718
  Ar          31.453526       32.476045       13.009474
  Ar          14.577187       14.410076        7.523998
  Ar          16.564394       33.151286       37.778803
  Ar          19.633703        5.222500       32.802210
  Ar          31.288911        0.797027        4.830420
  Ar          10.132892       35.603532        0.830930
  Ar          29.072467       35.845565       32.839004
  Ar           9.590901       15.877700       11.282585
  Ar           9.140683        3.523896       22.728108
  Ar          37.212214        6.059544       21.365879
  Ar          37.591081       35.937995       37.481373
  Ar           2.812967       32.007641        5.358444
  Ar           6.331862        9.971715        7.602897
  Ar          25.337257       33.398487       32.436631
  Ar           3.900501       27.413290       15.115230
  Ar          16.154109       17.436909        9.166172
  Ar          39.394183       38.691187        8.963893
  Ar          25.720414       22.453756       14.568207
  Ar          20.751779       25.390686       27.872014
  Ar           6.377821       29.003164       31.155475
  Ar          38.148392       21.217816       26.633214
  Ar          21.937141        2.388718       19.921675
  Ar           5.135879        0.560430       20.614449
  Ar          39.064703        2.638715       36.037754
  Ar          18.160399       30.653940       15.195045
  Ar           8.148530       33.170804       26.721923
  Ar          24.260173       36.514824       22.867639
  Ar          23.557189       12.004148        1.431371
  Ar          26.640294        6.916180       26.687430
  Ar          16.352255       10.256113       25.224821
  Ar          17.750167        7.860540       31.733714
  Ar           1.154163        1.228183       18.355495
  Ar          10.010232        8.606198       39.644891
  Ar           5.505126       32.596699        2.405188
  Ar           7.194846       39.968432       36.046297
  Ar          32.705659       25.796883        3.264086
  Ar           9.322712       38.336165        4.308302
  Ar          30.544374       16.948228        3.941607
  Ar           0.679020       20.372295        6.870010
  Ar          18.213517       14.323045       10.425005
  Ar           9.281582        9.218135        6.270651
  Ar          25.423587       18.833058        7.391562
  Ar          19.231193       35.220657       32.350585
  Ar          22.630713        3.605379       26.411658
  Ar           6.286194       21.021935       33.460382
  Ar           2.990726        3.208488       15.428234
  Ar          36.294657       28.904349       38.427834
  Ar           0.719680       39.660138       26.231978
  Ar          32.747526       21.659194       31.695416
  Ar           3.626690       11.105468       37.693121
  Ar          21.482848       21.213680       14.191976
  Ar           0.362401        7.171733       32.119949
  Ar          12.031344        6.731700        2.080544
  Ar          25.270745       11.821821       29.953179
  Ar          22.451094        7.480934       37.681103
  Ar          22.300460        6.398446       21.157600
  Ar           4.018259       33.653028       25.458091
  Ar           1.745571       15.579155       37.851805
  Ar          23.824625        2.311057       38.013325
  Ar          31.221133       35.025244        5.288229
  Ar          13.538914       19.113487       31.991385
  Ar          13.522460        9.742963       11.443627
  Ar          26.403951       35.967521       39.364388
  Ar          36.794541       12.982010       22.554533
  Ar          22.851481       20.255884        4.733384
  Ar          16.580909       32.877531       22.470627
  Ar          22.670945       26.071922       14.134965
  Ar          34.154250       24.421690        8.175605
  Ar          29.592729        7.956803       34.505818
  Ar          12.113245       14.909888        5.374926
  Ar           6.628799       35.667743       10.847244
  Ar           4.609205       13.302342       19.254064
  Ar          23.021513       20.954073       24.199909
  Ar          11.976038       12.963398       11.139876
  Ar           0.763467       15.519704        7.597702
  Ar           4.095132        3.181453        2.398873
  Ar          34.457816       13.139110       24.902602
  Ar          33.899133       16.164368       34.137460
  Ar          25.675849        5.099210       36.679793
  Ar           9.106702        2.508501       34.045611
  Ar          10.525546       35.441095       12.017354
  Ar          22.510622       35.070941       32.760105
  Ar          26.013495       37.704830       27.135526
  Ar          24.245048       25.377371        8.988989
  Ar           9.669404       30.113245       16.282432
  Ar           9.781885       22.120243       28.523406
  Ar          14.658579        0.218009        6.066504
  Ar           8.803767       25.839717       35.215908
  Ar           8.496904       18.237626        0.457095
  Ar          21.848283       34.604988       18.309474
  Ar           9.196254        2.243004        8.696648
  Ar          11.312595       37.533503       19.268326
  Ar          21.441836        8.942005        0.613702
  Ar          14.745538       25.127433        0.604368
  Ar          16.180945       33.096381       31.770323
  Ar           8.295001        5.873265       34.986498
  Ar          33.371591        0.189570       24.062881
  Ar          10.804078       22.511511       21.542776
  Ar          36.822704       20.686702        8.116289
  Ar           8.678571        0.653593       20.826396
  Ar          23.059521       15.918478       22.371728
  Ar          30.515111        3.666347       17.979346
  Ar           9.882439       25.906159       31.636770
  Ar          14.752089       30.263382       18.739813
  Ar           1.445879        6.144097       37.479634
  Ar          24.359293       29.791200       30.991967
  Ar           7.410388        2.387445       13.832200
  Ar           9.623928       10.883005       13.373326
  Ar           3.634063        4.334162        9.059515
  Ar           1.718325        9.119561       25.275729
  Ar          29.376601       28.600828       21.025121
  Ar          17.756882       25.156244        3.623404
  Ar           4.363184       28.008289       18.672531
  Ar           4.035518       36.852018        3.118103
  Ar          38.738220       20.424448       16.197698
  Ar          22.800423       34.881707       10.281669
  Ar          16.308689        4.088141       10.950773
  Ar          31.580679        5.695117       36.856716
  Ar          19.792771        5.113225        4.888445
  Ar           1.802227       33.880919       12.619948
  Ar          39.024590       32.702886       11.523303
  Ar          36.102431       13.983429        5.655737
  Ar           3.259991       23.656382        6.470488
  Ar          10.826684       38.776596       22.569841
  Ar          33.605061       37.377985       17.895220
  Ar          39.999992       27.788090       26.129927
  Ar          28.384861       36.526111       17.802610
  Ar           2.638960       26.327620       10.611523
  Ar          21.995693       29.289400       36.314536
  Ar           5.344254       29.300131        4.874741
  Ar          16.850119        1.984178       23.827242
  Ar           6.868243       29.372567       23.623675
  Ar          28.515932       17.616024       14.215937
  Ar          36.664934       31.053523       30.943690
  Ar           5.337164       35.650911       36.213422
  Ar           0.487613       27.202251        0.571032
  Ar          10.871880       25.647512        8.105931
  Ar          12.165618       27.471788       21.555493
  Ar          34.821073        8.444814       11.177093
  Ar           6.040622       14.498906       26.454368
  Ar          22.781466        6.854079        6.885946
  Ar           5.810730       36.120923       15.460137
  Ar           9.596357        9.550737       35.821931
  Ar           7.055534       18.957444       17.731513
  Ar          14.660637        2.971914       31.921650
  Ar          25.022383       10.631953        4.682659
  Ar          28.042327       11.871019        2.706285
  Ar          18.544816       22.763695       16.598416
  Ar          34.074468        6.132031       14.473430
  Ar          21.303443       21.336978       27.418107
  Ar          18.983791       27.949952       29.956036
  Ar          20.250599        1.147476        1.530424
  Ar          10.646030       30.371135       37.536187
  Ar          22.076566        5.424325       15.019533
  Ar          34.597138        5.627203       30.094064
  Ar          32.101158        6.633149        7.219767
  Ar          36.175235       13.526831       31.853349
  Ar          15.940794       29.489789       25.196452
  Ar          30.362390       19.412123        0.708174
  Ar           8.584130       32.052278       39.625569
  Ar          19.883773        4.615128       23.495075
  Ar          12.976353        8.521627       32.913717
  Ar          36.659741       25.468818       27.686507
  Ar          35.294543       18.111873       30.966463
  Ar          20.017028       10.766128       13.689468
  Ar          26.976270       37.590023       11.170098
  Ar          30.613684       18.958473       34.582510
  Ar          16.422193       16.966469       19.177606
